simulator lang=spectre
parameters VDD=0.9
include "runs/common_setup.scs"
