simulator lang=spectre
parameters VDD=1.3
include "runs/common_setup.scs"
