simulator lang=spectre
parameters VDD=1.1
include "runs/common_setup_geometry.scs"
